26
P2221 P2221.ff
 PT        -0.523423599381      0.930752778295      2.195209941740
 C1        -1.589787655631     -0.387894298195      1.529673299160
 C1         0.837057844395      0.159742331708      3.129726250442
 C1        -1.486506811831      2.031676260563      3.279402249641
 CM         0.153992293933      1.910396568183      0.830831088843
 H1        -1.878855596442     -1.016049359428      2.376928481188
 H1        -0.955899249125     -1.003677544474      0.884314660780
 H1         1.376707764106     -0.477942999899      2.422902641326
 H1         0.375870587828     -0.506461400292      3.864232055403
 H1        -2.247060500544      2.505651421259      2.652706340373
 H1        -0.809440928791      2.827097505207      3.603058167924
 HM         0.741117478374      1.269951439969      0.170261754064
 HM         0.793210876190      2.702475232066      1.222896778448
 HM        -0.657789269101      2.364169512846      0.260897060202
 C2         1.782008895181      1.160033786361      3.807602123786
 H2         1.262684467078      1.774449609658      4.545205692502
 H2         2.568820417113      0.615282917939      4.330645484040
 H2         2.266292495593      1.819595930334      3.085268157366
 C2        -2.823058583633      0.121632081403      0.773024546004
 H2        -3.395068965875     -0.729180761932      0.401119457019
 H2        -3.483519174616      0.704320105666      1.417673608160
 H2        -2.550381521758      0.733585548608     -0.088692064663
 C2        -2.119878097131      1.316730353201      4.479391531979
 H2        -2.677165543720      2.037837022992      5.078331880462
 H2        -2.819676257180      0.539146868190      4.167432706224
 H2        -1.367221075033      0.864104729773      5.127697227586
 
 
