44
P4441 P4441.ff
 PT        -0.511847703993      0.907127711822      2.195888789389
 C1        -1.574913915598     -0.438908154257      1.588412168580
 C2        -2.809740190723      0.029115461218      0.803873685802
 C1         0.820771283179      0.192209240241      3.207761689844
 C2         1.736225272396      1.226741064695      3.879534157523
 C1        -1.488837632421      2.079390517018      3.183312431331
 C2        -2.155750596947      1.448429354237      4.414192494683
 CM         0.207357379183      1.790872022580      0.786965985483
 H1        -1.870926987606     -1.027455963356      2.462131060900
 H1        -0.941935243441     -1.086228965282      0.972435380274
 H2        -2.503327961823      0.639709785056     -0.051961204483
 H2        -3.434113954201      0.665865336596      1.438998537601
 H1         1.394285855268     -0.469641319457      2.550373787613
 H1         0.341944969679     -0.445998630352      3.956601454111
 H2         1.146743130826      1.872489759649      4.538461032723
 H2         2.189508719177      1.876238390518      3.123345231208
 H1        -2.235948308111      2.516054669249      2.513815617279
 H1        -0.815597422119      2.890950401415      3.474997641680
 H2        -2.814504631545      0.630517655075      4.103690080903
 H2        -1.394554356421      1.008544589546      5.067220633831
 HM         0.799269336118      1.102470643572      0.181258852811
 HM         0.849204238551      2.597165069967      1.143873018036
 HM        -0.586706352850      2.217011707476      0.172667837050
 C3        -2.969054055065      2.475641384889      5.209730846697
 H3        -3.727311678440      2.917597538152      4.554043703503
 H3        -2.309531778748      3.294898047162      5.516382656499
 C3        -3.645516917883     -1.154417393682      0.302683353955
 H3        -3.945310624605     -1.769092074129      1.158612441776
 H3        -3.020584000049     -1.791484570504     -0.332602394062
 C3         2.846973208365      0.556092887112      4.696186278659
 H3         3.436940011983     -0.089916260528      4.036964011840
 H3         2.393056891325     -0.099493130751      5.447500928950
 C4        -3.639819464017      1.861660935387      6.438618068204
 H4        -2.900074717026      1.441275674319      7.125731596745
 H4        -4.211737248281      2.612658658369      6.986548739199
 H4        -4.328883159569      1.060862345599      6.155775959900
 C4         3.761133336791      1.573117249919      5.379745663179
 H4         4.541934304403      1.070967792318      5.953780955321
 H4         4.251889557824      2.220428132356      4.647528266137
 H4         3.200085324060      2.210336846837      6.069167224596
 C4        -4.884361073446     -0.704973081955     -0.472234313790
 H4        -4.609957104988     -0.115110751252     -1.351297798068
 H4        -5.461135741071     -1.564952053693     -0.817324593070
 H4        -5.541959288143     -0.092884693155      0.151478449655



