53
P5551 P5551.ff
 PT        -0.511435688671      0.906292358103      2.193362310830
 C1        -1.584045553172     -0.431400674966      1.584198865206
 C2        -2.819871215858      0.047517278389      0.807769742614
 C4        -4.908620981344     -0.678324342555     -0.464098764843
 C1         0.819080337148      0.182073630877      3.201396317499
 C2         1.737811883775      1.211029099864      3.877348623681
 C4         3.769185692122      1.538551469069      5.384651707559
 C1        -1.479818298943      2.081725410889      3.185307590236
 C2        -2.148114337388      1.450502993090      4.415374484827
 C4        -3.632757133045      1.874244925213      6.445987020780
 C5        -4.437966483390      2.903455363670      7.240502732859
 C5         4.873890741757      0.860550976642      6.196327447932
 C5        -5.748202361279     -1.854101722982     -0.965707603727
 CM         0.210478659504      1.788965784879      0.785004512980
 H1        -1.879394467004     -1.022520551623      2.456356245737
 H1        -0.957379341935     -1.079096912403      0.962226172323
 H2        -2.513440106155      0.661810032272     -0.045325293554
 H2        -3.437424196810      0.683769616955      1.449866921954
 H4        -4.603634602571     -0.055375983269     -1.312880144849
 H4        -5.520085990041     -0.039104564223      0.183337626983
 H1         1.390199992576     -0.478866153896      2.541052955976
 H1         0.338333025538     -0.457592559030      3.947703739167
 H2         1.149730903434      1.855275141805      4.538830693313
 H2         2.192034831828      1.862420793608      3.123455163112
 H4         3.172454031152      2.182414552840      6.041187896917
 H4         4.217217179250      2.197080087070      4.631571995425
 H1        -2.225654297007      2.524392953975      2.518392709441
 H1        -0.801557567476      2.888559645974      3.478337169648
 H2        -2.810593809946      0.636498307579      4.102826040185
 H2        -1.387662287322      1.005300700660      5.065519562073
 H4        -4.290628558762      1.056114695457      6.130532697285
 H4        -2.870355287897      1.424499504038      7.092590531772
 H5        -3.798474535292      3.716197019276      7.596436974923
 H5        -5.228722881603      3.345176780392      6.627485243843
 H5        -4.909999147041      2.446093391022      8.112377513693
 H5         4.454132184315      0.221184712150      6.978142453855
 H5         5.516240528478      1.598961849031      6.680369092343
 H5         5.506410340460      0.236502065246      5.558667790391
 H5        -5.171269948378     -2.491551414766     -1.641688053563
 H5        -6.094130968559     -2.475621910912     -0.134874896117
 H5        -6.628866535343     -1.505453180056     -1.508872971953
 HM         0.797607791869      1.098546737659      0.176969399851
 HM         0.857289641949      2.590966852413      1.142602566798
 HM        -0.582315302219      2.220626120040      0.172924861458
 C3        -2.954974789109      2.479050428996      5.213746372568
 H3        -3.714073429375      2.927873480143      4.562157513280
 H3        -2.292909165739      3.295979346737      5.524420817823
 C3        -3.663004636598     -1.128293712053      0.303842670203
 H3        -3.963720244325     -1.749100781013      1.156211298458
 H3        -3.046677054669     -1.766082267946     -0.340666388381
 C3         2.846002293007      0.533864267544      4.690175748480
 H3         3.437782769054     -0.110683914745      4.029603988603
 H3         2.392916347055     -0.125208787127      5.440310742103

