9
TCB- TCB.ff
B         0.000000000      0.000000000      0.000000000
CN        0.919383000      0.919383000      0.919383000
NC        1.586332000      1.586332000      1.586332000
CN       -0.919383000     -0.919383000      0.919383000
NC       -1.586332000     -1.586332000      1.586332000
CN        0.919383000     -0.919383000     -0.919383000
NC        1.586332000     -1.586332000     -1.586332000
CN       -0.919383000      0.919383000     -0.919383000
NC       -1.586332000      1.586332000     -1.586332000


